Version 4
SHEET 1 996 680
WIRE 256 -272 -208 -272
WIRE -208 -160 -208 -192
WIRE -208 -160 -320 -160
WIRE -320 -128 -320 -160
WIRE -208 -128 -208 -160
WIRE 256 -96 256 -272
WIRE 256 -96 96 -96
WIRE 528 -96 256 -96
WIRE -208 -48 -528 -48
WIRE 592 16 480 16
WIRE 160 32 48 32
WIRE 528 48 528 -96
WIRE 96 64 96 -96
WIRE 480 64 480 16
WIRE 496 64 480 64
WIRE 48 80 48 32
WIRE 64 80 48 80
WIRE 592 80 592 16
WIRE 592 80 560 80
WIRE 656 80 592 80
WIRE 768 80 720 80
WIRE 160 96 160 32
WIRE 160 96 128 96
WIRE 192 96 160 96
WIRE 208 96 192 96
WIRE 416 96 368 96
WIRE 496 96 416 96
WIRE 768 96 768 80
WIRE -208 112 -384 112
WIRE 64 112 -208 112
WIRE 416 128 416 96
WIRE -384 144 -384 112
WIRE -208 144 -208 112
WIRE 272 144 256 144
WIRE 272 192 272 144
WIRE 768 224 768 176
WIRE 416 240 416 192
WIRE -208 256 -208 224
WIRE -384 272 -384 224
WIRE 272 304 272 272
WIRE 496 304 272 304
WIRE 96 336 96 128
WIRE 272 336 96 336
WIRE 528 336 528 112
WIRE 528 336 272 336
WIRE 496 352 496 304
WIRE 496 432 544 416
WIRE -528 496 -528 -48
WIRE 272 496 272 336
WIRE 272 496 -528 496
FLAG -208 256 0
FLAG 416 240 0
FLAG 544 416 0
FLAG 768 224 0
FLAG -384 272 0
FLAG -320 -128 0
SYMBOL res -224 128 R0
SYMATTR InstName R2
SYMATTR Value 10k
SYMBOL polcap 720 64 R90
WINDOW 0 0 32 VBottom 2
WINDOW 3 32 32 VTop 2
SYMATTR InstName C2
SYMATTR Value 100n
SYMBOL voltage -384 128 R0
WINDOW 123 0 0 Left 2
WINDOW 39 0 0 Left 2
SYMATTR InstName V1
SYMATTR Value SINE(0 5 200)
SYMBOL voltage 496 336 R0
WINDOW 123 0 0 Left 2
WINDOW 39 0 0 Left 2
SYMATTR InstName V2
SYMATTR Value PULSE(0 0.5 0 0.0001 0.0001 0.005 0.01)
SYMBOL res 752 80 R0
SYMATTR InstName R3
SYMATTR Value 8
SYMBOL voltage -208 -288 R0
WINDOW 123 0 0 Left 2
WINDOW 39 0 0 Left 2
SYMATTR InstName V3
SYMATTR Value 12
SYMBOL voltage -208 -144 R0
WINDOW 123 0 0 Left 2
WINDOW 39 0 0 Left 2
SYMATTR InstName V4
SYMATTR Value 12
SYMBOL polcap 400 128 R0
WINDOW 3 24 56 Left 2
SYMATTR InstName C1
SYMATTR Value 1000µ
SYMATTR Description Capacitor
SYMATTR Type cap
SYMATTR SpiceLine V=50 Irms=2 Rser=0.041 Lser=0 mfg="Panasonic" pn="ECA1HFQ102S" type="Al electrolytic"
SYMBOL res 384 80 R90
WINDOW 0 0 56 VBottom 2
WINDOW 3 32 56 VTop 2
SYMATTR InstName R4
SYMATTR Value 10K
SYMATTR SpiceLine tol=1 pwr=0.1
SYMBOL njf 192 144 R270
SYMATTR InstName J1
SYMATTR Value 2N4119
SYMBOL Opamps\\LT1884 96 32 R0
SYMATTR InstName U3
SYMBOL Opamps\\LT1884 528 16 R0
SYMATTR InstName U4
SYMBOL res 256 176 R0
SYMATTR InstName R1
SYMATTR Value 10K
SYMATTR SpiceLine tol=1 pwr=0.1
TEXT -418 346 Left 2 !.tran 0.1s
TEXT 400 -240 Left 2 !.model MYSW SW(Ron=1 Roff=1Meg Vt=.5 Vh=.4)
